-------------------------------------------------------
          Amber 20 PMEMD                              2020
          -------------------------------------------------------

  [-O]verwriting output

File Assignments:

 Here is the input file:

md for free MD
 &cntrl
  imin=0,
  irest=1,
  ntx=5,
  nstlim=500000,
  dt=0.002,
  cut=10.0,
  ntc=2,
  ntf=2,
  ntp=1,
  pres0=1.01325,
  taup = 5.0,
  ntt=3,
  gamma_ln=2.0,
  tempi=300.0,
  temp0=300.0,
  ntpr=5000,
  ntwr=5000,
  ntwx=5000,
  ntwv=-1,
  ioutfm=1,
  iwrap=0,

 /

Note: ig = -1. Setting random seed to   511672 based on wallclock time in
      microseconds.

--------------------------------------------------------------------------------
   1.  RESOURCE   USE:
--------------------------------------------------------------------------------

 getting box info from netcdf restart file
 NATOM  =   49902 NTYPES =       9 NBONH =   37423 MBONA  =   12478
 NTHETH =       8 MTHETA =       5 NPHIH =      15 MPHIA  =       5
 NHPARM =       0 NPARM  =       0 NNB   =   87346 NRES   =   12475
 NBONA  =   12478 NTHETA =       5 NPHIA =       5 NUMBND =      12
 NUMANG =      13 NPTRA  =       7 NATYP =      12 NPHB   =       0
 IFBOX  =       2 NMXRS  =       9 IFCAP =       0 NEXTRA =   12473
 NCOPY  =       0

     BOX TYPE: TRUNCATED OCTAHEDRON

--------------------------------------------------------------------------------
   2.  CONTROL  DATA  FOR  THE  RUN
--------------------------------------------------------------------------------

default_name

General flags:
     imin    =       0, nmropt  =       0

Nature and format of input:
     ntx     =       5, irest   =       1, ntrx    =       1

Nature and format of output:
     ntxo    =       2, ntpr    =    5000, ntrx    =       1, ntwr    =    5000
     iwrap   =       0, ntwx    =    5000, ntwv    =      -1, ntwe    =       0
     ioutfm  =       1, ntwprt  =       0, idecomp =       0, rbornstat=      0

Potential function:
     ntf     =       2, ntb     =       2, igb     =       0, nsnb    =      25
     ipol    =       0, gbsa    =       0, iesp    =       0
     dielc   =   1.00000, cut     =  10.00000, intdiel =   1.00000

Frozen or restrained atoms:
     ibelly  =       0, ntr     =       0

Molecular dynamics:
     nstlim  =    500000, nscm    =      1000, nrespa  =         1
     t       =   0.00000, dt      =   0.00200, vlimit  =  -1.00000

Langevin dynamics temperature regulation:
     ig      =  511672
     temp0   = 300.00000, tempi   = 300.00000, gamma_ln=   2.00000

Pressure regulation:
     ntp     =       1
     pres0   =   1.01325, comp    =  44.60000, taup    =   5.00000

SHAKE:
     ntc     =       2, jfastw  =       0
     tol     =   0.00001

Extra-points options:
     frameon =       1, chngmask=       1

Ewald parameters:
     verbose =       0, ew_type =       0, nbflag  =       1, use_pme =       1
     vdwmeth =       1, eedmeth =       1, netfrc  =       1
     Box X =   78.687   Box Y =   78.687   Box Z =   78.687
     Alpha =  109.471   Beta  =  109.471   Gamma =  109.471
     NFFT1 =   80       NFFT2 =   80       NFFT3 =   80
     Cutoff=   10.000   Tol   =0.100E-04
     Ewald Coefficient =  0.27511
     Interpolation order =    4

--------------------------------------------------------------------------------
   3.  ATOMIC COORDINATES AND VELOCITIES
--------------------------------------------------------------------------------

default_name
 begin time read from input coords =  1300.000 ps

 Number of triangulated 3-point waters found:    12473

     Sum of charges from parm topology file =   2.00006845
     Assuming uniform neutralizing plasma

--------------------------------------------------------------------------------
   4.  RESULTS
 NSTEP =     5000   TIME(PS) =    1310.000  TEMP(K) =   299.27  PRESS =    72.0
 Etot   =   -130858.9333  EKtot   =     22260.7676  EPtot      =   -153119.7009
 BOND   =         3.7835  ANGLE   =        19.7194  DIHED      =         2.5558
 1-4 NB =        -0.1418  1-4 EEL =        -8.8363  VDWAALS    =     22610.1144
 EELEC  =   -175746.8958  EHBOND  =         0.0000  RESTRAINT  =         0.0000
 EKCMT  =     11127.6390  VIRIAL  =     10544.6847  VOLUME     =    375224.5680
                                                    Density    =         0.9950
 ------------------------------------------------------------------------------

      A V E R A G E S   O V E R     100 S T E P S

 NSTEP =   500000   TIME(PS) =    2300.000  TEMP(K) =   300.11  PRESS =   -12.2
 Etot   =   -130830.4839  EKtot   =     22323.4462  EPtot      =   -153153.9300
 BOND   =         1.6797  ANGLE   =        19.7951  DIHED      =         2.1367
 1-4 NB =        -0.1479  1-4 EEL =        -8.5380  VDWAALS    =     22376.2199
 EELEC  =   -175545.0755  EHBOND  =         0.0000  RESTRAINT  =         0.0000
 EKCMT  =     11206.0858  VIRIAL  =     11305.1143  VOLUME     =    374790.7991
                                                    Density    =         0.9962
 ------------------------------------------------------------------------------

      R M S  F L U C T U A T I O N S

 NSTEP =   500000   TIME(PS) =    2300.000  TEMP(K) =     1.67  PRESS =   110.0
 Etot   =       242.4532  EKtot   =       124.2608  EPtot      =       201.5273
 BOND   =         0.9997  ANGLE   =         1.1190  DIHED      =         1.3325
 1-4 NB =         0.0041  1-4 EEL =         0.2297  VDWAALS    =       207.0281
 EELEC  =       349.4284  EHBOND  =         0.0000  RESTRAINT  =         0.0000
 EKCMT  =        85.4877  VIRIAL  =       894.6369  VOLUME     =       348.2007
                                                    Density    =         0.0009
 ------------------------------------------------------------------------------
