-------------------------------------------------------
          Amber 20 PMEMD                              2020
          -------------------------------------------------------

  [-O]verwriting output

File Assignments:

 Here is the input file:

npt for free MD
 &cntrl
  imin=0,
  irest=1,
  ntx=5,
  nstlim=500000,
  dt=0.002,
  cut=10.0,
  ntc=2,
  ntf=2,
  ntp=1,
  pres0=1.01325,
  taup = 5.0,
  ntt=3,
  gamma_ln=2.0,
  tempi=300.0,
  temp0=300.0,
  ntpr=5000,
  ntwr=5000,
  ntwx=50000,
  ioutfm=1,
  iwrap=0,

 /

Note: ig = -1. Setting random seed to   752732 based on wallclock time in
      microseconds.

--------------------------------------------------------------------------------
   1.  RESOURCE   USE:
--------------------------------------------------------------------------------

 getting box info from netcdf restart file
 NATOM  =   49902 NTYPES =       9 NBONH =   37423 MBONA  =   12478
 NTHETH =       8 MTHETA =       5 NPHIH =      15 MPHIA  =       5
 NHPARM =       0 NPARM  =       0 NNB   =   87346 NRES   =   12475
 NBONA  =   12478 NTHETA =       5 NPHIA =       5 NUMBND =      12
 NUMANG =      13 NPTRA  =       7 NATYP =      12 NPHB   =       0
 IFBOX  =       2 NMXRS  =       9 IFCAP =       0 NEXTRA =   12473
 NCOPY  =       0

     BOX TYPE: TRUNCATED OCTAHEDRON

--------------------------------------------------------------------------------
   2.  CONTROL  DATA  FOR  THE  RUN
--------------------------------------------------------------------------------

default_name

General flags:
     imin    =       0, nmropt  =       0

Nature and format of input:
     ntx     =       5, irest   =       1, ntrx    =       1

Nature and format of output:
     ntxo    =       2, ntpr    =    5000, ntrx    =       1, ntwr    =    5000
     iwrap   =       0, ntwx    =   50000, ntwv    =       0, ntwe    =       0
     ioutfm  =       1, ntwprt  =       0, idecomp =       0, rbornstat=      0

Potential function:
     ntf     =       2, ntb     =       2, igb     =       0, nsnb    =      25
     ipol    =       0, gbsa    =       0, iesp    =       0
     dielc   =   1.00000, cut     =  10.00000, intdiel =   1.00000

Frozen or restrained atoms:
     ibelly  =       0, ntr     =       0

Molecular dynamics:
     nstlim  =    500000, nscm    =      1000, nrespa  =         1
     t       =   0.00000, dt      =   0.00200, vlimit  =  -1.00000

Langevin dynamics temperature regulation:
     ig      =  752732
     temp0   = 300.00000, tempi   = 300.00000, gamma_ln=   2.00000

Pressure regulation:
     ntp     =       1
     pres0   =   1.01325, comp    =  44.60000, taup    =   5.00000

SHAKE:
     ntc     =       2, jfastw  =       0
     tol     =   0.00001

Extra-points options:
     frameon =       1, chngmask=       1

Ewald parameters:
     verbose =       0, ew_type =       0, nbflag  =       1, use_pme =       1
     vdwmeth =       1, eedmeth =       1, netfrc  =       1
     Box X =   78.664   Box Y =   78.664   Box Z =   78.664
     Alpha =  109.471   Beta  =  109.471   Gamma =  109.471
     NFFT1 =   80       NFFT2 =   80       NFFT3 =   80
     Cutoff=   10.000   Tol   =0.100E-04
     Ewald Coefficient =  0.27511
     Interpolation order =    4

--------------------------------------------------------------------------------
   3.  ATOMIC COORDINATES AND VELOCITIES
--------------------------------------------------------------------------------

default_name
 begin time read from input coords =   300.000 ps

 Number of triangulated 3-point waters found:    12473

     Sum of charges from parm topology file =   2.00006845
     Assuming uniform neutralizing plasma

--------------------------------------------------------------------------------
   4.  RESULTS
 NSTEP =     5000   TIME(PS) =     310.000  TEMP(K) =   300.43  PRESS =    37.4
 Etot   =   -130605.7994  EKtot   =     22347.3438  EPtot      =   -152953.1431
 BOND   =         0.9898  ANGLE   =        19.2133  DIHED      =         1.9208
 1-4 NB =        -0.1503  1-4 EEL =        -8.3975  VDWAALS    =     22297.7775
 EELEC  =   -175264.4968  EHBOND  =         0.0000  RESTRAINT  =         0.0000
 EKCMT  =     11248.3664  VIRIAL  =     10946.0369  VOLUME     =    374334.7900
                                                    Density    =         0.9974
 ------------------------------------------------------------------------------

      A V E R A G E S   O V E R     100 S T E P S

 NSTEP =   500000   TIME(PS) =    1300.000  TEMP(K) =   299.82  PRESS =     1.5
 Etot   =   -130861.3792  EKtot   =     22302.1967  EPtot      =   -153163.5759
 BOND   =         1.8696  ANGLE   =        19.9278  DIHED      =         2.1422
 1-4 NB =        -0.1479  1-4 EEL =        -8.4683  VDWAALS    =     22398.9994
 EELEC  =   -175577.8987  EHBOND  =         0.0000  RESTRAINT  =         0.0000
 EKCMT  =     11197.2121  VIRIAL  =     11185.3655  VOLUME     =    374725.4023
                                                    Density    =         0.9964
 ------------------------------------------------------------------------------

      R M S  F L U C T U A T I O N S

 NSTEP =   500000   TIME(PS) =    1300.000  TEMP(K) =     1.56  PRESS =   105.0
 Etot   =       216.5549  EKtot   =       116.2078  EPtot      =       173.6975
 BOND   =         1.1195  ANGLE   =         1.2175  DIHED      =         1.1394
 1-4 NB =         0.0033  1-4 EEL =         0.2294  VDWAALS    =       189.1060
 EELEC  =       299.5492  EHBOND  =         0.0000  RESTRAINT  =         0.0000
 EKCMT  =        87.1578  VIRIAL  =       849.8374  VOLUME     =       338.1664
                                                    Density    =         0.0009
 ------------------------------------------------------------------------------
