-------------------------------------------------------
          Amber 20 PMEMD                              2020
          -------------------------------------------------------

  [-O]verwriting output

File Assignments:

 Here is the input file:

snpt for free MD
 &cntrl
  imin=0,
  irest=1,
  ntx=5,
  nstlim=50000,
  dt=0.002,
  cut=10.0,
  ntc=2,
  ntf=2,
  ntp=1,
  pres0=1.01325,
  taup = 5.0,
  ntt=3,
  gamma_ln=2.0,
  tempi=300.0,
  temp0=300.0,
  ntpr=5000,
  ntwr=5000,
  ntwx=5000,
  ioutfm=1,
  iwrap=0,

 /

Note: ig = -1. Setting random seed to   285178 based on wallclock time in
      microseconds and disabling the synchronization of random numbers
      between tasks to improve performance.

--------------------------------------------------------------------------------
   1.  RESOURCE   USE:
--------------------------------------------------------------------------------

 getting box info from netcdf restart file
 NATOM  =   49902 NTYPES =       9 NBONH =   37423 MBONA  =   12478
 NTHETH =       8 MTHETA =       5 NPHIH =      15 MPHIA  =       5
 NHPARM =       0 NPARM  =       0 NNB   =   87346 NRES   =   12475
 NBONA  =   12478 NTHETA =       5 NPHIA =       5 NUMBND =      12
 NUMANG =      13 NPTRA  =       7 NATYP =      12 NPHB   =       0
 IFBOX  =       2 NMXRS  =       9 IFCAP =       0 NEXTRA =   12473
 NCOPY  =       0

     BOX TYPE: TRUNCATED OCTAHEDRON

--------------------------------------------------------------------------------
   2.  CONTROL  DATA  FOR  THE  RUN
--------------------------------------------------------------------------------

default_name

General flags:
     imin    =       0, nmropt  =       0

Nature and format of input:
     ntx     =       5, irest   =       1, ntrx    =       1

Nature and format of output:
     ntxo    =       2, ntpr    =    5000, ntrx    =       1, ntwr    =    5000
     iwrap   =       0, ntwx    =    5000, ntwv    =       0, ntwe    =       0
     ioutfm  =       1, ntwprt  =       0, idecomp =       0, rbornstat=      0

Potential function:
     ntf     =       2, ntb     =       2, igb     =       0, nsnb    =      25
     ipol    =       0, gbsa    =       0, iesp    =       0
     dielc   =   1.00000, cut     =  10.00000, intdiel =   1.00000

Frozen or restrained atoms:
     ibelly  =       0, ntr     =       0

Molecular dynamics:
     nstlim  =     50000, nscm    =      1000, nrespa  =         1
     t       =   0.00000, dt      =   0.00200, vlimit  =  20.00000

Langevin dynamics temperature regulation:
     ig      =  285178
     temp0   = 300.00000, tempi   = 300.00000, gamma_ln=   2.00000

Pressure regulation:
     ntp     =       1
     pres0   =   1.01325, comp    =  44.60000, taup    =   5.00000

SHAKE:
     ntc     =       2, jfastw  =       0
     tol     =   0.00001

Extra-points options:
     frameon =       1, chngmask=       1

Ewald parameters:
     verbose =       0, ew_type =       0, nbflag  =       1, use_pme =       1
     vdwmeth =       1, eedmeth =       1, netfrc  =       1
     Box X =   80.825   Box Y =   80.825   Box Z =   80.825
     Alpha =  109.471   Beta  =  109.471   Gamma =  109.471
     NFFT1 =   90       NFFT2 =   81       NFFT3 =   81
     Cutoff=   10.000   Tol   =0.100E-04
     Ewald Coefficient =  0.27511
     Interpolation order =    4

--------------------------------------------------------------------------------
   3.  ATOMIC COORDINATES AND VELOCITIES
--------------------------------------------------------------------------------

default_name
 begin time read from input coords =   200.000 ps

 Number of triangulated 3-point waters found:    12473

     Sum of charges from parm topology file =   2.00006845
     Assuming uniform neutralizing plasma

--------------------------------------------------------------------------------
   4.  RESULTS
 NSTEP =     5000   TIME(PS) =     210.000  TEMP(K) =   299.46  PRESS =  -286.7
 Etot   =   -130658.6359  EKtot   =     22274.8552  EPtot      =   -152933.4911
 BOND   =         1.2744  ANGLE   =        21.2741  DIHED      =         1.5088
 1-4 NB =        -0.1503  1-4 EEL =        -8.6843  VDWAALS    =     22545.6040
 EELEC  =   -175494.3178  EHBOND  =         0.0000  RESTRAINT  =         0.0000
 EKCMT  =     11132.9666  VIRIAL  =     13495.9631  VOLUME     =    381779.3227
                                                    Density    =         0.9780
 Ewald error estimate:   0.6504E-05
 ------------------------------------------------------------------------------

      A V E R A G E S   O V E R      10 S T E P S

 NSTEP =    50000   TIME(PS) =     300.000  TEMP(K) =   299.96  PRESS =   -38.0
 Etot   =   -130809.3256  EKtot   =     22312.1438  EPtot      =   -153121.4694
 BOND   =         1.5045  ANGLE   =        19.6568  DIHED      =         1.4176
 1-4 NB =        -0.1480  1-4 EEL =        -8.7106  VDWAALS    =     22396.0209
 EELEC  =   -175531.2106  EHBOND  =         0.0000  RESTRAINT  =         0.0000
 EKCMT  =     11187.7071  VIRIAL  =     11500.0271  VOLUME     =    375575.5066
                                                    Density    =         0.9941
 Ewald error estimate:   0.7596E-04
 ------------------------------------------------------------------------------

      R M S  F L U C T U A T I O N S

 NSTEP =    50000   TIME(PS) =     300.000  TEMP(K) =     1.14  PRESS =   129.9
 Etot   =       172.2783  EKtot   =        84.7742  EPtot      =       200.2374
 BOND   =         0.7240  ANGLE   =         0.9274  DIHED      =         0.4934
 1-4 NB =         0.0029  1-4 EEL =         0.1805  VDWAALS    =       143.1321
 EELEC  =       235.9794  EHBOND  =         0.0000  RESTRAINT  =         0.0000
 EKCMT  =        52.0786  VIRIAL  =      1042.3740  VOLUME     =      2117.9413
                                                    Density    =         0.0055
 Ewald error estimate:   0.8788E-04
 ------------------------------------------------------------------------------
