-------------------------------------------------------
          Amber 20 PMEMD                              2020
          -------------------------------------------------------

  [-O]verwriting output

File Assignments:

 Here is the input file:

md for smd
 &cntrl
  imin=0,
  irest=1,
  ntx=5,
  nstlim=145000,
  dt=0.001,
  cut=10.0,
  ntc=2,
  ntf=2,
  ntp=1,
  pres0=1.01325,
  taup = 5.0,
  ntt=3,
  gamma_ln=2.0,
  tempi=300.0,
  temp0=300.0,
  ntpr=5000,
  ntwr=5000,
  ntwx=100,
  ntwv=0,
  ioutfm=1,
  iwrap=0,
  nmropt=1,
  jar=1,
 /
 &wt TYPE='DUMPFREQ', istep1=100, /
 &wt TYPE='END', /
DISANG=smd_reverse_dis.RST
DUMPAVE=smd_reverse_md.log

Note: ig = -1. Setting random seed to    52873 based on wallclock time in
      microseconds.

--------------------------------------------------------------------------------
   1.  RESOURCE   USE:
--------------------------------------------------------------------------------

 getting new box info from bottom of inpcrd
 NATOM  =   49902 NTYPES =       9 NBONH =   37423 MBONA  =   12478
 NTHETH =       8 MTHETA =       5 NPHIH =      15 MPHIA  =       5
 NHPARM =       0 NPARM  =       0 NNB   =   87346 NRES   =   12475
 NBONA  =   12478 NTHETA =       5 NPHIA =       5 NUMBND =      12
 NUMANG =      13 NPTRA  =       7 NATYP =      12 NPHB   =       0
 IFBOX  =       2 NMXRS  =       9 IFCAP =       0 NEXTRA =   12473
 NCOPY  =       0

     BOX TYPE: TRUNCATED OCTAHEDRON

--------------------------------------------------------------------------------
   2.  CONTROL  DATA  FOR  THE  RUN
--------------------------------------------------------------------------------

default_name

General flags:
     imin    =       0, nmropt  =       1

Nature and format of input:
     ntx     =       5, irest   =       1, ntrx    =       1

Nature and format of output:
     ntxo    =       2, ntpr    =    5000, ntrx    =       1, ntwr    =    5000
     iwrap   =       0, ntwx    =     100, ntwv    =       0, ntwe    =       0
     ioutfm  =       1, ntwprt  =       0, idecomp =       0, rbornstat=      0

Potential function:
     ntf     =       2, ntb     =       2, igb     =       0, nsnb    =      25
     ipol    =       0, gbsa    =       0, iesp    =       0
     dielc   =   1.00000, cut     =  10.00000, intdiel =   1.00000

Frozen or restrained atoms:
     ibelly  =       0, ntr     =       0

Molecular dynamics:
     nstlim  =    145000, nscm    =      1000, nrespa  =         1
     t       =   0.00000, dt      =   0.00100, vlimit  =  -1.00000

Langevin dynamics temperature regulation:
     ig      =   52873
     temp0   = 300.00000, tempi   = 300.00000, gamma_ln=   2.00000

Pressure regulation:
     ntp     =       1
     pres0   =   1.01325, comp    =  44.60000, taup    =   5.00000

SHAKE:
     ntc     =       2, jfastw  =       0
     tol     =   0.00001

NMR refinement options:
     iscale  =       0, noeskp  =       1, ipnlty  =       1, mxsub   =       1
     scalm   = 100.00000, pencut  =   0.10000, tausw   =   0.10000

Extra-points options:
     frameon =       1, chngmask=       1

Ewald parameters:
     verbose =       0, ew_type =       0, nbflag  =       1, use_pme =       1
     vdwmeth =       1, eedmeth =       1, netfrc  =       1
     Box X =   78.678   Box Y =   78.678   Box Z =   78.678
     Alpha =  109.471   Beta  =  109.471   Gamma =  109.471
     NFFT1 =   80       NFFT2 =   80       NFFT3 =   80
     Cutoff=   10.000   Tol   =0.100E-04
     Ewald Coefficient =  0.27511
     Interpolation order =    4

--------------------------------------------------------------------------------
   3.  ATOMIC COORDINATES AND VELOCITIES
--------------------------------------------------------------------------------

Cpptraj Generated Restart
 begin time read from input coords =  2040.000 ps

           Begin reading energy term weight changes/NMR restraints
 WEIGHT CHANGES:
 DUMPFREQ    100      0    0.000000    0.000000      0      0
                         ** No weight changes given **

 RESTRAINTS:
 Requested file redirections:
  DISANG    = smd_reverse_dis.RST
  DUMPAVE   = smd_reverse_md.log
 Restraints will be read from file: smd_reverse_dis.RST
Here are comments from the DISANG input file:
# restraint

jar option running
                       Number of restraints read =     1

                  Done reading weight changes/NMR restraints

 Number of triangulated 3-point waters found:    12473

     Sum of charges from parm topology file =   2.00006845
     Assuming uniform neutralizing plasma

--------------------------------------------------------------------------------
   4.  RESULTS
 NSTEP =     5000   TIME(PS) =    2045.000  TEMP(K) =   303.08  PRESS =   -54.6
 Etot   =   -130917.3402  EKtot   =     22544.3672  EPtot      =   -153461.7074
 BOND   =         1.8841  ANGLE   =        20.4719  DIHED      =         0.7137
 1-4 NB =        -0.1448  1-4 EEL =        -8.2668  VDWAALS    =     22432.0545
 EELEC  =   -175908.5256  EHBOND  =         0.0000  RESTRAINT  =         0.1057
 EAMBER (non-restraint)  =   -153461.8131
 EKCMT  =     11255.3966  VIRIAL  =     11697.2403  VOLUME     =    374826.9730
                                                    Density    =         0.9961
 ------------------------------------------------------------------------------

      A V E R A G E S   O V E R      29 S T E P S

 NSTEP =   145000   TIME(PS) =    2185.000  TEMP(K) =   300.00  PRESS =   -10.6
 Etot   =   -131116.8703  EKtot   =     22315.4543  EPtot      =   -153432.3246
 BOND   =         2.0471  ANGLE   =        19.7935  DIHED      =         1.8045
 1-4 NB =        -0.1475  1-4 EEL =        -8.3903  VDWAALS    =     22489.3733
 EELEC  =   -175937.5164  EHBOND  =         0.0000  RESTRAINT  =         0.7112
 EAMBER (non-restraint)  =   -153433.0358
 EKCMT  =     11149.5699  VIRIAL  =     11235.4865  VOLUME     =    374570.3478
                                                    Density    =         0.9968
 ------------------------------------------------------------------------------

      R M S  F L U C T U A T I O N S

 NSTEP =   145000   TIME(PS) =    2185.000  TEMP(K) =     1.31  PRESS =   133.1
 Etot   =       173.9354  EKtot   =        97.3837  EPtot      =       129.0481
 BOND   =         1.3472  ANGLE   =         0.8597  DIHED      =         0.9668
 1-4 NB =         0.0030  1-4 EEL =         0.2501  VDWAALS    =       244.8204
 EELEC  =       303.3521  EHBOND  =         0.0000  RESTRAINT  =         0.9962
 EAMBER (non-restraint)  =       128.0519
 EKCMT  =        64.9754  VIRIAL  =      1093.7681  VOLUME     =       305.4937
                                                    Density    =         0.0008
 ------------------------------------------------------------------------------
