-------------------------------------------------------
          Amber 20 PMEMD                              2020
          -------------------------------------------------------

  [-O]verwriting output

File Assignments:

 Here is the input file:

md for smd
 &cntrl
  imin=0,
  irest=1,
  ntx=5,
  nstlim=4400000,
  dt=0.001,
  cut=10.0,
  ntc=2,
  ntf=2,
  ntp=1,
  pres0=1.01325,
  taup = 5.0,
  ntt=3,
  gamma_ln=2.0,
  tempi=300.0,
  temp0=300.0,
  ntpr=5000,
  ntwr=5000,
  ntwx=100,
  ntwv=0,
  ioutfm=1,
  iwrap=0,
  nmropt=1,
  jar=1,
 /
 &wt TYPE='DUMPFREQ', istep1=100, /
 &wt TYPE='END', /
DISANG=smd_forward_dis.RST
DUMPAVE=smd_forward_md.log

Note: ig = -1. Setting random seed to   370413 based on wallclock time in
      microseconds.

--------------------------------------------------------------------------------
   1.  RESOURCE   USE:
--------------------------------------------------------------------------------

 getting new box info from bottom of inpcrd
 NATOM  =   49902 NTYPES =       9 NBONH =   37423 MBONA  =   12478
 NTHETH =       8 MTHETA =       5 NPHIH =      15 MPHIA  =       5
 NHPARM =       0 NPARM  =       0 NNB   =   87346 NRES   =   12475
 NBONA  =   12478 NTHETA =       5 NPHIA =       5 NUMBND =      12
 NUMANG =      13 NPTRA  =       7 NATYP =      12 NPHB   =       0
 IFBOX  =       2 NMXRS  =       9 IFCAP =       0 NEXTRA =   12473
 NCOPY  =       0

     BOX TYPE: TRUNCATED OCTAHEDRON

--------------------------------------------------------------------------------
   2.  CONTROL  DATA  FOR  THE  RUN
--------------------------------------------------------------------------------

default_name

General flags:
     imin    =       0, nmropt  =       1

Nature and format of input:
     ntx     =       5, irest   =       1, ntrx    =       1

Nature and format of output:
     ntxo    =       2, ntpr    =    5000, ntrx    =       1, ntwr    =    5000
     iwrap   =       0, ntwx    =     100, ntwv    =       0, ntwe    =       0
     ioutfm  =       1, ntwprt  =       0, idecomp =       0, rbornstat=      0

Potential function:
     ntf     =       2, ntb     =       2, igb     =       0, nsnb    =      25
     ipol    =       0, gbsa    =       0, iesp    =       0
     dielc   =   1.00000, cut     =  10.00000, intdiel =   1.00000

Frozen or restrained atoms:
     ibelly  =       0, ntr     =       0

Molecular dynamics:
     nstlim  =   4400000, nscm    =      1000, nrespa  =         1
     t       =   0.00000, dt      =   0.00100, vlimit  =  -1.00000

Langevin dynamics temperature regulation:
     ig      =  370413
     temp0   = 300.00000, tempi   = 300.00000, gamma_ln=   2.00000

Pressure regulation:
     ntp     =       1
     pres0   =   1.01325, comp    =  44.60000, taup    =   5.00000

SHAKE:
     ntc     =       2, jfastw  =       0
     tol     =   0.00001

NMR refinement options:
     iscale  =       0, noeskp  =       1, ipnlty  =       1, mxsub   =       1
     scalm   = 100.00000, pencut  =   0.10000, tausw   =   0.10000

Extra-points options:
     frameon =       1, chngmask=       1

Ewald parameters:
     verbose =       0, ew_type =       0, nbflag  =       1, use_pme =       1
     vdwmeth =       1, eedmeth =       1, netfrc  =       1
     Box X =   78.678   Box Y =   78.678   Box Z =   78.678
     Alpha =  109.471   Beta  =  109.471   Gamma =  109.471
     NFFT1 =   80       NFFT2 =   80       NFFT3 =   80
     Cutoff=   10.000   Tol   =0.100E-04
     Ewald Coefficient =  0.27511
     Interpolation order =    4

--------------------------------------------------------------------------------
   3.  ATOMIC COORDINATES AND VELOCITIES
--------------------------------------------------------------------------------

Cpptraj Generated Restart
 begin time read from input coords =  2040.000 ps

           Begin reading energy term weight changes/NMR restraints
 WEIGHT CHANGES:
 DUMPFREQ    100      0    0.000000    0.000000      0      0
                         ** No weight changes given **

 RESTRAINTS:
 Requested file redirections:
  DISANG    = smd_forward_dis.RST
  DUMPAVE   = smd_forward_md.log
 Restraints will be read from file: smd_forward_dis.RST
Here are comments from the DISANG input file:
# restraint

jar option running
                       Number of restraints read =     1

                  Done reading weight changes/NMR restraints

 Number of triangulated 3-point waters found:    12473

     Sum of charges from parm topology file =   2.00006845
     Assuming uniform neutralizing plasma

--------------------------------------------------------------------------------
   4.  RESULTS
 NSTEP =     5000   TIME(PS) =    2045.000  TEMP(K) =   300.42  PRESS =    -8.3
 Etot   =   -131488.0053  EKtot   =     22346.7832  EPtot      =   -153834.7885
 BOND   =         2.5587  ANGLE   =        18.7280  DIHED      =         0.6481
 1-4 NB =        -0.1512  1-4 EEL =        -8.5123  VDWAALS    =     22645.1716
 EELEC  =   -176494.3262  EHBOND  =         0.0000  RESTRAINT  =         1.0947
 EAMBER (non-restraint)  =   -153835.8832
 EKCMT  =     11110.8475  VIRIAL  =     11178.1389  VOLUME     =    374246.4740
                                                    Density    =         0.9976
 ------------------------------------------------------------------------------

      A V E R A G E S   O V E R     880 S T E P S

 NSTEP =  4400000   TIME(PS) =    6440.000  TEMP(K) =   300.01  PRESS =    -0.3
 Etot   =   -131155.2760  EKtot   =     22316.2801  EPtot      =   -153471.5560
 BOND   =         1.5421  ANGLE   =        19.8631  DIHED      =         1.9252
 1-4 NB =        -0.1484  1-4 EEL =        -8.5794  VDWAALS    =     22528.3726
 EELEC  =   -176014.8451  EHBOND  =         0.0000  RESTRAINT  =         0.3138
 EAMBER (non-restraint)  =   -153471.8699
 EKCMT  =     11166.2729  VIRIAL  =     11168.6719  VOLUME     =    374613.8077
                                                    Density    =         0.9967
 ------------------------------------------------------------------------------

      R M S  F L U C T U A T I O N S

 NSTEP =  4400000   TIME(PS) =    6440.000  TEMP(K) =     1.53  PRESS =   115.2
 Etot   =       207.2132  EKtot   =       114.0899  EPtot      =       172.5640
 BOND   =         0.9573  ANGLE   =         1.1244  DIHED      =         1.1404
 1-4 NB =         0.0032  1-4 EEL =         0.2388  VDWAALS    =       204.5635
 EELEC  =       306.9921  EHBOND  =         0.0000  RESTRAINT  =         0.4530
 EAMBER (non-restraint)  =       172.1110
 EKCMT  =        80.4750  VIRIAL  =       933.0326  VOLUME     =       335.6739
                                                    Density    =         0.0009
 ------------------------------------------------------------------------------
